Circuit: * C:\Users\tomkr\OneDrive\Dokumente\Desktop\Master\SRP\RF_Research_Project\30_Umsetzung\LTspice\Schaltung und Anpassung.asc

WARNING: Node N019 is floating.
WARNING: Node N006 is floating.

WARNING: Less than two connections to node nc_01.  This node is used by r21.
WARNING: Less than two connections to node nc_02.  This node is used by r22.
WARNING: Less than two connections to node nc_03.  This node is used by r23.
WARNING: Less than two connections to node nc_04.  This node is used by r24.
Direct Newton iteration failed to find .op point.  (Use ".option noopiter" to skip.)
Starting Gmin stepping
Gmin = 10
Gmin = 1.07374
vernier = 0.5
vernier = 0.25
vernier = 0.125
vernier = 0.0625
vernier = 0.03125
Gmin = 1.0412
vernier = 0.015625
vernier = 0.0078125
Gmin = 1.0132
vernier = 0.00390625
vernier = 0.00195312
Gmin = 1.00827
vernier = 0.00260417
vernier = 0.00130208
Gmin = 1.00515
vernier = 0.000651042
vernier = 0.000868055
vernier = 0.000434028
Gmin = 1.00434
vernier = 0.000578703
vernier = 0.000434027
Gmin = 1.00339
Gmin = 0
Gmin stepping failed

Starting source stepping with srcstepmethod=0
Source Step = 3.0303%
Source Step = 18.9394%
Source Step = 24.053%
Source Step = 25.947%
Source Step = 26.7992%
Source Step = 27.2727%
Source Step = 27.7462%
Source Step = 27.9238%
Source Step = 28.0421%
Source Step = 28.1605%
Source Step = 28.2789%
Source Step = 28.3973%
vernier = 0.00585938
Source Step = 28.5511%
Source Step = 28.7287%
Source Step = 28.9063%
Source Step = 29.0838%
Source Step = 29.2614%
vernier = 0.00878906
Source Step = 29.4833%
Source Step = 29.7496%
Source Step = 30.016%
Source Step = 30.0959%
Source Step = 30.1625%
Source Step = 30.229%
Source Step = 30.2956%
Source Step = 30.3622%
vernier = 0.0032959
Source Step = 30.4521%
Source Step = 30.552%
Source Step = 30.6519%
Source Step = 30.7517%
Source Step = 30.8516%
Source Step = 30.9515%
Source Step = 31.0514%
Source Step = 31.1512%
vernier = 0.00494385
Source Step = 31.2711%
Source Step = 31.4209%
Source Step = 31.5707%
Source Step = 31.7205%
Source Step = 31.8703%
vernier = 0.00741577
Source Step = 32.0426%
Source Step = 32.2673%
Source Step = 32.4921%
Source Step = 32.7168%
Source Step = 32.9415%
vernier = 0.0111237
Source Step = 33.1887%
Source Step = 33.5258%
Source Step = 33.8629%
Source Step = 34.1999%
Source Step = 34.537%
vernier = 0.0166855
Source Step = 34.891%
Source Step = 35.3966%
Source Step = 35.9022%
Source Step = 36.4078%
Source Step = 36.9134%
Source Step = 37.4191%
vernier = 0.0250282
Source Step = 38.1775%
Source Step = 38.9359%
Source Step = 39.6944%
Source Step = 40.4528%
Source Step = 41.2112%
vernier = 0.0375423
Source Step = 42.3109%
Source Step = 43.4486%
Source Step = 44.5862%
Source Step = 45.7239%
Source Step = 46.8615%
vernier = 0.0563135
Source Step = 48.4542%
Source Step = 50.1607%
Source Step = 51.8672%
Source Step = 53.5736%
Source Step = 55.2801%
vernier = 0.0844703
Source Step = 57.5838%
Source Step = 60.1436%
Source Step = 62.7033%
Source Step = 65.263%
Source Step = 67.8227%
vernier = 0.126705
Source Step = 71.1503%
Source Step = 74.9898%
Source Step = 78.8294%
Source Step = 82.669%
Source Step = 86.5085%
vernier = 0.190058
Source Step = 91.308%
Source Step = 97.0673%
Source Step = 100%
Source stepping succeeded in finding the operating point.


Date: Sun Dec  7 12:55:32 2025
Total elapsed time: 1.226 seconds.

tnom = 27
temp = 27
method = modified trap
totiter = 22972
traniter = 3602
tranpoints = 1802
accept = 1570
rejected = 232
matrix size = 72
fillins = 136
solver = Normal
Avg thread counts: 2.1/3.2/3.2/2.1
Matrix Compiler1: 10.07 KB object code size  2.7/1.9/[0.9]
Matrix Compiler2: 8.25 KB object code size  0.7/1.2/[0.6]

