Circuit: * C:\Users\tomkr\OneDrive\Dokumente\Desktop\Master\SRP\RF_Research_Project\30_Umsetzung\LTspice\Schaltung und Anpassung.asc

WARNING: Less than two connections to node -5v.  This node is used by v2.
Direct Newton iteration failed to find .op point.  (Use ".option noopiter" to skip.)
Starting Gmin stepping
Gmin = 10
Gmin = 1.07374
Gmin = 0.115292
Gmin = 0.0123794
Gmin = 0.00132923
Gmin = 0.000142725
Gmin = 1.5325e-05
Gmin = 1.6455e-06
vernier = 0.5
vernier = 0.25
vernier = 0.125
Gmin = 4.31359e-07
vernier = 0.0625
vernier = 0.03125
vernier = 0.015625
vernier = 0.0078125
vernier = 0.00390625
vernier = 0.00195312
Gmin = 4.30518e-07
vernier = 0.00260417
vernier = 0.00347222
Gmin = 4.27516e-07
vernier = 0.00462963
vernier = 0.00617283
Gmin = 4.22803e-07
vernier = 0.00823044
Gmin = 4.15266e-07
vernier = 0.0109739
vernier = 0.0146319
Gmin = 4.03216e-07
vernier = 0.0195092
vernier = 0.0260122
Gmin = 3.84846e-07
vernier = 0.034683
Gmin = 3.56832e-07
vernier = 0.046244
vernier = 0.0616586
Gmin = 3.15378e-07
vernier = 0.0822114
vernier = 0.109615
Gmin = 2.59506e-07
vernier = 0.146154
Gmin = 1.89459e-07
vernier = 0.194871
vernier = 0.259828
Gmin = 1.13758e-07
vernier = 0.346438
vernier = 0.461917
Gmin = 5.12959e-08
vernier = 0.615889
Gmin = 1.45144e-08
vernier = 0.821185
vernier = 1
Gmin = 2.10044e-09
Gmin = 2.25533e-10
Gmin = 2.42164e-11
Gmin = 2.60021e-12
Gmin = 2.79196e-13
Gmin = 0
Gmin stepping succeeded in finding the operating point.


Date: Tue Dec 16 16:55:31 2025
Total elapsed time: 0.348 seconds.

tnom = 27
temp = 27
method = modified trap
totiter = 6211
traniter = 4554
tranpoints = 2278
accept = 1957
rejected = 321
matrix size = 50
fillins = 108
solver = Normal
Avg thread counts: 1.9/2.8/2.8/1.9
Matrix Compiler1: 7.45 KB object code size  2.0/0.9/[0.7]
Matrix Compiler2: 6.09 KB object code size  0.9/1.2/[0.5]

